25
XYZ file generated by gabedit : coordinates in Angstrom
S          4.2379270000          0.0056500000         -0.0959540000
C          3.2049980000         -1.4153880000          0.0524660000
H          0.1260400000          1.5493800000          1.0196340000
C          2.8439560000          1.1233600000         -0.0569430000
C          1.8406960000         -1.0062130000          0.1188030000
C          1.6116680000          0.3434360000          0.0682910000
H         -0.8812990000         -0.7485120000          0.8786670000
H          1.0446140000         -1.7376300000          0.1935910000
C          0.2284900000          0.9506720000          0.1042830000
H         -2.3935640000          1.2444280000          0.9681600000
C         -0.9350030000         -0.0495920000          0.0317770000
H         -3.4145880000         -1.0582340000          0.7870750000
H          0.1353590000          1.6686760000         -0.7211390000
C         -2.3029310000          0.6465010000          0.0491540000
H         -4.9383910000          0.9344520000          0.9306380000
H         -0.8454530000         -0.6552200000         -0.8813770000
C         -3.4805410000         -0.3334950000         -0.0387190000
H         -2.3596440000          1.3609840000         -0.7852460000
H         -6.0014240000         -1.3542930000          0.7306800000
C         -4.8523500000          0.3533260000          0.0011980000
H         -3.3963460000         -0.9209200000         -0.9658220000
C         -6.0224680000         -0.6320280000         -0.0951170000
H         -4.9165550000          1.0818720000         -0.8197910000
H         -6.9868890000         -0.1121120000         -0.0586560000
H         -5.9859830000         -1.2008790000         -1.0327970000
 
